$DATA1 SOURCE='HSPICE' VERSION='A-2008.03 32-BIT'
.TITLE '******** digital electronics, template code********'
 to_rise          to_fall          temper           alter#            
  8.205e-10        6.397e-10         25.0000           1.0000         
